# grid at 30N but sent radian(0N) to diurnal_solar

time	coszen	toa_sw	coszen*S_0
2025-03-21	0.31831	384.87393	432.90143
2025-03-22	0.31831	384.87384	432.90143
2025-03-23	0.31831	384.87421	432.90143
2025-03-24	0.31831	384.87427	432.90143
2025-03-25	0.31831	384.87433	432.90143
2025-03-26	0.31831	384.87451	432.90143
2025-03-27	0.31831	384.87491	432.90143
2025-03-28	0.31831	384.87564	432.90143
2025-03-29	0.31831	384.87674	432.90143
2025-03-30	0.31831	384.87817	432.90143

&astronomy_nml
    ecc = 0.0
    obliq = 0.0
    per = 0.0
/

&atmosphere_nml
    idealized_moist_model = .true.
/

&column_grid_nml
    lat_value = 30.0
/

&column_init_cond_nml
    initial_temperature = 264.0
    surf_geopotential = 0.0
    surface_wind = 5.0
/

&column_nml
    initial_sphum = 0.001
    lat_max = 1
    lon_max = 1
    num_levels = 50
    q_decrease_only = .true.
    vert_coord_option = 'even_sigma'
/

&diag_manager_nml
    mix_snapshot_average_fields = .false.
/

&fms_io_nml
    fileset_write = 'single'
    threading_write = 'single'
/

&fms_nml
    domains_stack_size = 600000
/

&idealized_moist_phys_nml
    convection_scheme = 'SIMPLE_BETTS_MILLER'
    do_damping = .false.
    do_lcl_diffusivity_depth = .true.
    do_rrtm_radiation = .true.
    do_simple = .true.
    mixed_layer_bc = .true.
    roughness_heat = 3.21e-05
    roughness_moist = 3.21e-05
    roughness_mom = 3.21e-05
    turb = .true.
    two_stream_gray = .false.
/

&lscale_cond_nml
    do_evap = .false.
    do_simple = .true.
/

&main_nml
    calendar = 'thirty_day'
    current_date = 2025, 3, 21, 0, 0, 0
    days = 10
    dt_atmos = 3600
    hours = 0
    minutes = 0
    seconds = 0
/

&mixed_layer_nml
    albedo_value = 0.0
    depth = 2.5
    evaporation = .true.
    prescribe_initial_dist = .false.
    tconst = 285.0
/

&qe_moist_convection_nml
    tmax = 350.0
    tmin = 160.0
    rhbm = 0.7
/

&rrtm_radiation_nml
    dt_rad = 3600
    dt_rad_avg = 86400
    lat_cnst = 0.0
    solr_cnst = 1360
/

&sat_vapor_pres_nml
    do_simple = .true.
/

&surface_flux_nml
    do_simple = .true.
    old_dtaudv = .true.
    use_virtual_temp = .true.
/

&vert_turb_driver_nml
    constant_gust = 0.0
    do_diffusivity = .true.
    do_mellor_yamada = .false.
    do_simple = .true.
    use_tau = .false.
/
